Circuit: * C:\Users\RFLab\.julia\dev\CircModDesign.jl\src\Filter_Archetype_1.asc

WARNING: Node N013 is floating.
WARNING: Node N009 is floating.


Date: Thu Sep 23 18:04:46 2021
Total elapsed time: 0.049 seconds.

tnom = 27
temp = 27
method = trap
totiter = 0
traniter = 0
tranpoints = 0
accept = 0
rejected = 0
matrix size = 14
fillins = 1
solver = Normal

